CRYSTAL
# Primitive lattice vectors in Angstrom
PRIMVEC
 11.27273472679465 0.00477067643957 -0.00634074998692
 0.00477067643957 11.27630731025636 -0.00505741788477
 -0.00543455856707 -0.00433463447071 9.66311810057461
# Cartesian coordinates in Angstrom.
PRIMCOORD
 64 1
Eu     2.82227460804018     4.70484559156208     2.88495508318711
Sr     0.95823873530495     8.43132235400834     2.23002591382214
Sr     4.70968781964786     8.49531535571154     2.58774957469737
Sr     8.49666765498270     6.56494940706584     2.57751260860546
Sr     6.57247128613758     2.80693086577843     2.61792445723973
Sr    10.34637987270873     2.82030058723527     2.19088050588214
Sr     2.81687295924493     0.93093909354762     2.20671718391062
Sr     8.44221274853949    10.35550496387631     2.20895991305167
Sr     8.42452145468982    10.34565314553065     7.39211021757655
Sr     6.53976875950527     2.75477562166548     7.10553107019213
Sr    10.34232791450057     2.82995704401368     7.44332696438044
Sr     2.80143632535312     0.91438690820138     7.47465484538161
Sr     0.91543377863352     8.45219794288973     7.43415290185463
Sr     4.70133673707905     8.47314688771968     7.04625783815277
Sr     8.47605439349407     6.54544992518395     7.05893003685204
Sr     2.83543460030045     4.72514789942351     6.91271122641421
Si     3.58237667958031     6.72923055123209    -0.01589634673632
Si     4.50646805358052     3.62214415814420     9.68187206972337
Si     1.09251697867702     2.06355669591222     4.83933061241832
Si     2.05551552428471    10.20566406011179     4.81697274152403
Si     9.23070015950457     1.09837104204415     4.80833154356008
Si    10.19478703697077     9.23140787361564     4.80969619442895
Si     6.71246119527766     7.68929967793115    -0.00330655310052
Si     7.65927167302363     4.53744037731872     0.01086596599659
Cl     8.44359145235572     1.08257162345823    -0.02872660300524
Cl    -0.01165838371206    -0.01467258235972     1.95940411654619
Cl     4.65752157584864     2.53016519377594     4.82118086233964
Cl    -0.03503620953167    -0.02523550410604     7.69235762906091
Cl     1.03824731112698     2.80710751762684    -0.00610914512172
Cl     0.11498668387649     5.58867243003573     2.55850264764248
Cl     8.51865349657824     4.58883690840507     4.79474180150873
Cl     5.62821767976874     0.03278584642251     2.18050341773618
Cl     2.78917064516444     6.93029469939572     4.74696819478230
Cl     5.65277366071200     5.62345494616478     6.70502586403882
Cl    10.22414061847934     8.28513007704481     0.01693796785120
Cl     5.56982181811224     5.61627824645752     2.93077052926017
Cl     6.69358151481525     8.60689578758875     4.80541351076145
Cl     5.62459828631361    -0.03132197044136     7.37059572431525
Cl     2.80143759175254    10.17466597969010     0.02140986380124
Cl     0.01617257167745     5.62699195533345     7.18494585474246
O     3.87229943163573     5.12166317131760    -0.19220053072532
O     2.75677716774650     9.85453643592417     6.22851127160036
O     2.90529317280205     7.00873155419058     1.43165568791402
O     1.82868707347993     0.57948927015602     4.80428326588760
O     4.16711657090611     2.81881113088259     8.32150456843592
O     2.85666341136490     7.16105392291515     8.26630167341445
O     1.44269330676705     2.73171860199444     6.26145217880123
O     1.49968075909691     2.78799526983848     3.43814660481451
O     4.07206545399452     3.05277519369707     1.47943027888120
O     6.18913493671469     3.74369186517852     0.06530315710304
O    10.70951059604983     1.87919905474660     4.77957431754695
O     2.76997900493261     9.86613504502428     3.40724205906202
O     9.44066026322560    10.72034259392645     4.80415088724114
O     8.40682296533767     4.19753091608269     1.40451402594217
O     8.52117283400271     1.46562901224921     6.21133929045407
O     7.42950985506083     6.18427495375342     0.00848407539658
O     9.82515239453935     8.51650088222650     3.40859738607490
O     8.51326847944907     1.45561877934634     3.40555807094155
O     7.10866890798344     8.38157652941546     1.40281065043978
O     7.10623850392234     8.37289550255305     8.25433045139237
O     9.80958257280544     8.52207002954982     6.20920921865721
O     0.57484570178136     9.43322781452671     4.81439801916826
O     5.05330468217488     7.54089165700015     0.00669911658656
O     8.35786370473370     4.16838610058436     8.26675914904660