# generated using pymatgen
data_Li7La3Zr2O12
_symmetry_space_group_name_H-M   'P 1'
_cell_length_a   11.23299904
_cell_length_b   11.23299904
_cell_length_c   11.23299904
_cell_angle_alpha   108.54499439
_cell_angle_beta   108.54499439
_cell_angle_gamma   111.33999140
_symmetry_Int_Tables_number   1
_chemical_formula_structural   Li7La3Zr2O12
_chemical_formula_sum   'Li28 La12 Zr8 O48'
_cell_volume   1090.22807487
_cell_formula_units_Z   4
loop_
 _symmetry_equiv_pos_site_id
 _symmetry_equiv_pos_as_xyz
  1  'x, y, z'
loop_
 _atom_type_symbol
 _atom_type_oxidation_number
  Li+  1.0
  La3+  3.0
  Zr4+  4.0
  O2-  -2.0
loop_
 _atom_site_type_symbol
 _atom_site_label
 _atom_site_symmetry_multiplicity
 _atom_site_fract_x
 _atom_site_fract_y
 _atom_site_fract_z
 _atom_site_occupancy
  Li+  Li1  1  0.250000  0.750000  0.500000  1.0
  Li+  Li2  1  0.750000  0.250000  0.500000  1.0
  Li+  Li3  1  0.500000  0.500000  0.000000  1.0
  Li+  Li4  1  0.000000  0.000000  0.000000  1.0
  Li+  Li5  1  0.677926  0.177926  0.855853  1.0
  Li+  Li6  1  0.177926  0.322074  0.500000  1.0
  Li+  Li7  1  0.927926  0.927926  0.355853  1.0
  Li+  Li8  1  0.427926  0.072074  0.000000  1.0
  Li+  Li9  1  0.572074  0.572074  0.644147  1.0
  Li+  Li10  1  0.072074  0.427926  0.000000  1.0
  Li+  Li11  1  0.322074  0.822074  0.144148  1.0
  Li+  Li12  1  0.822074  0.677926  0.500000  1.0
  Li+  Li13  1  0.899761  0.156963  0.417018  1.0
  Li+  Li14  1  0.399761  0.982743  0.742798  1.0
  Li+  Li15  1  0.906963  0.149761  0.917018  1.0
  Li+  Li16  1  0.406963  0.489945  0.757202  1.0
  Li+  Li17  1  0.350239  0.593037  0.082982  1.0
  Li+  Li18  1  0.850239  0.767257  0.757202  1.0
  Li+  Li19  1  0.343037  0.600239  0.582982  1.0
  Li+  Li20  1  0.843037  0.260055  0.742798  1.0
  Li+  Li21  1  0.239945  0.656963  0.257202  1.0
  Li+  Li22  1  0.739945  0.482743  0.582982  1.0
  Li+  Li23  1  0.732743  0.649761  0.242798  1.0
  Li+  Li24  1  0.232743  0.989945  0.082982  1.0
  Li+  Li25  1  0.010055  0.093037  0.242798  1.0
  Li+  Li26  1  0.510055  0.267257  0.917018  1.0
  Li+  Li27  1  0.517257  0.100239  0.257202  1.0
  Li+  Li28  1  0.017257  0.760055  0.417018  1.0
  La3+  La29  1  0.500000  0.000000  0.500000  1.0
  La3+  La30  1  0.000000  0.500000  0.500000  1.0
  La3+  La31  1  0.750000  0.750000  0.000000  1.0
  La3+  La32  1  0.250000  0.250000  0.000000  1.0
  La3+  La33  1  0.503007  0.625000  0.378007  1.0
  La3+  La34  1  0.003007  0.625000  0.878007  1.0
  La3+  La35  1  0.375000  0.753007  0.878007  1.0
  La3+  La36  1  0.875000  0.996993  0.621993  1.0
  La3+  La37  1  0.746993  0.125000  0.121993  1.0
  La3+  La38  1  0.246993  0.125000  0.621993  1.0
  La3+  La39  1  0.375000  0.253007  0.378007  1.0
  La3+  La40  1  0.875000  0.496993  0.121993  1.0
  Zr4+  Zr41  1  0.625000  0.875000  0.250000  1.0
  Zr4+  Zr42  1  0.125000  0.875000  0.750000  1.0
  Zr4+  Zr43  1  0.625000  0.875000  0.750000  1.0
  Zr4+  Zr44  1  0.125000  0.375000  0.750000  1.0
  Zr4+  Zr45  1  0.125000  0.375000  0.250000  1.0
  Zr4+  Zr46  1  0.625000  0.375000  0.750000  1.0
  Zr4+  Zr47  1  0.625000  0.375000  0.250000  1.0
  Zr4+  Zr48  1  0.125000  0.875000  0.250000  1.0
  O2-  O49  1  0.437452  0.776968  0.271130  1.0
  O2-  O50  1  0.937452  0.666322  0.660484  1.0
  O2-  O51  1  0.526968  0.687452  0.771131  1.0
  O2-  O52  1  0.026968  0.255838  0.839516  1.0
  O2-  O53  1  0.812548  0.973032  0.228870  1.0
  O2-  O54  1  0.312548  0.083678  0.839516  1.0
  O2-  O55  1  0.723032  0.062548  0.728869  1.0
  O2-  O56  1  0.223032  0.494162  0.660484  1.0
  O2-  O57  1  0.005838  0.276968  0.339516  1.0
  O2-  O58  1  0.505838  0.166322  0.728869  1.0
  O2-  O59  1  0.416322  0.187452  0.160484  1.0
  O2-  O60  1  0.916322  0.755838  0.228870  1.0
  O2-  O61  1  0.244162  0.473032  0.160484  1.0
  O2-  O62  1  0.744162  0.583678  0.771131  1.0
  O2-  O63  1  0.833678  0.562548  0.339516  1.0
  O2-  O64  1  0.333678  0.994162  0.271130  1.0
  O2-  O65  1  0.146117  0.192904  0.156383  1.0
  O2-  O66  1  0.646117  0.489734  0.953213  1.0
  O2-  O67  1  0.942904  0.396117  0.656383  1.0
  O2-  O68  1  0.442904  0.786521  0.546787  1.0
  O2-  O69  1  0.103883  0.557096  0.343617  1.0
  O2-  O70  1  0.603883  0.260266  0.546787  1.0
  O2-  O71  1  0.307096  0.353883  0.843617  1.0
  O2-  O72  1  0.807096  0.963479  0.953213  1.0
  O2-  O73  1  0.536521  0.692904  0.046787  1.0
  O2-  O74  1  0.036521  0.989734  0.843617  1.0
  O2-  O75  1  0.239734  0.896117  0.453213  1.0
  O2-  O76  1  0.739734  0.286521  0.343617  1.0
  O2-  O77  1  0.713479  0.057096  0.453213  1.0
  O2-  O78  1  0.213479  0.760266  0.656383  1.0
  O2-  O79  1  0.010266  0.853883  0.046787  1.0
  O2-  O80  1  0.510266  0.463479  0.156383  1.0
  O2-  O81  1  0.329162  0.456769  0.428243  1.0
  O2-  O82  1  0.829162  0.400919  0.872393  1.0
  O2-  O83  1  0.206769  0.579162  0.928243  1.0
  O2-  O84  1  0.706769  0.778526  0.627607  1.0
  O2-  O85  1  0.920838  0.293231  0.071757  1.0
  O2-  O86  1  0.420838  0.349081  0.627607  1.0
  O2-  O87  1  0.043231  0.170838  0.571757  1.0
  O2-  O88  1  0.543231  0.971474  0.872393  1.0
  O2-  O89  1  0.528526  0.956769  0.127607  1.0
  O2-  O90  1  0.028526  0.900919  0.571757  1.0
  O2-  O91  1  0.150920  0.079162  0.372393  1.0
  O2-  O92  1  0.650919  0.278526  0.071757  1.0
  O2-  O93  1  0.721474  0.793231  0.372393  1.0
  O2-  O94  1  0.221474  0.849081  0.928243  1.0
  O2-  O95  1  0.099081  0.670838  0.127607  1.0
  O2-  O96  1  0.599081  0.471474  0.428243  1.0
