# generated using pymatgen
data_MgB2
_symmetry_space_group_name_H-M   'P 1'
_cell_length_a   3.08600001
_cell_length_b   3.08600001
_cell_length_c   3.52300001
_cell_angle_alpha   90.00000000
_cell_angle_beta   90.00000000
_cell_angle_gamma   120.00000000
_symmetry_Int_Tables_number   1
_chemical_formula_structural   MgB2
_chemical_formula_sum   'Mg1 B2'
_cell_volume   29.05595294
_cell_formula_units_Z   1
loop_
 _symmetry_equiv_pos_site_id
 _symmetry_equiv_pos_as_xyz
  1  'x, y, z'
loop_
 _atom_site_type_symbol
 _atom_site_label
 _atom_site_symmetry_multiplicity
 _atom_site_fract_x
 _atom_site_fract_y
 _atom_site_fract_z
 _atom_site_occupancy
  Mg  Mg0  1  0.000000  0.000000  0.000000  1
  B  B1  1  0.333333  0.666667  0.500000  1
  B  B2  1  0.666667  0.333333  0.500000  1

