# generated using pymatgen
data_SrLiAl3N4
_symmetry_space_group_name_H-M   'P 1'
_cell_length_a   5.88394367
_cell_length_b   7.53217750
_cell_length_c   9.99362755
_cell_angle_alpha   83.65185550
_cell_angle_beta   76.83877067
_cell_angle_gamma   79.59221903
_symmetry_Int_Tables_number   1
_chemical_formula_structural   SrLiAl3N4
_chemical_formula_sum   'Sr4 Li4 Al12 N16'
_cell_volume   423.06083509
_cell_formula_units_Z   4
loop_
 _symmetry_equiv_pos_site_id
 _symmetry_equiv_pos_as_xyz
  1  'x, y, z'
loop_
 _atom_site_type_symbol
 _atom_site_label
 _atom_site_symmetry_multiplicity
 _atom_site_fract_x
 _atom_site_fract_y
 _atom_site_fract_z
 _atom_site_occupancy
  Sr  Sr0  1  0.99548569  0.86608086  0.87321629  1
  Sr  Sr1  1  0.00451431  0.13391914  0.12678371  1
  Sr  Sr2  1  0.97545377  0.61619440  0.62885416  1
  Sr  Sr3  1  0.02454623  0.38380560  0.37114584  1
  Li  Li4  1  0.53152807  0.67383001  0.88816306  1
  Li  Li5  1  0.46847193  0.32616999  0.11183694  1
  Li  Li6  1  0.78952810  0.82017118  0.35535449  1
  Li  Li7  1  0.21047190  0.17982882  0.64464551  1
  Al  Al8  1  0.44776185  0.04603288  0.87648318  1
  Al  Al9  1  0.55223815  0.95396712  0.12351682  1
  Al  Al10  1  0.82471978  0.05988349  0.60186812  1
  Al  Al11  1  0.17528022  0.94011651  0.39813188  1
  Al  Al12  1  0.83149593  0.29155064  0.85259325  1
  Al  Al13  1  0.16850407  0.70844936  0.14740675  1
  Al  Al14  1  0.17854497  0.44320108  0.89976640  1
  Al  Al15  1  0.82145503  0.55679892  0.10023360  1
  Al  Al16  1  0.53078364  0.43879511  0.62448888  1
  Al  Al17  1  0.46921636  0.56120489  0.37551112  1
  Al  Al18  1  0.43608090  0.79654703  0.63301425  1
  Al  Al19  1  0.56391910  0.20345297  0.36698575  1
  N  N20  1  0.65105224  0.13201582  0.97169907  1
  N  N21  1  0.34894776  0.86798418  0.02830093  1
  N  N22  1  0.62730787  0.64495806  0.49584181  1
  N  N23  1  0.37269213  0.35504194  0.50415819  1
  N  N24  1  0.61450907  0.91702599  0.72007835  1
  N  N25  1  0.38549093  0.08297401  0.27992165  1
  N  N26  1  0.84950385  0.06890424  0.40718206  1
  N  N27  1  0.15049615  0.93109576  0.59281794  1
  N  N28  1  0.16870318  0.20482422  0.85634305  1
  N  N29  1  0.83129682  0.79517578  0.14365695  1
  N  N30  1  0.83723505  0.52329899  0.91135026  1
  N  N31  1  0.16276495  0.47670101  0.08864974  1
  N  N32  1  0.80228813  0.29118091  0.66735974  1
  N  N33  1  0.19771187  0.70881909  0.33264026  1
  N  N34  1  0.34076254  0.59111533  0.76132493  1
  N  N35  1  0.65923746  0.40888467  0.23867507  1
