# generated using pymatgen
data_Sr7EuO8
_symmetry_space_group_name_H-M   'P 1'
_cell_length_a   7.36261076
_cell_length_b   7.36261076
_cell_length_c   7.36261076
_cell_angle_alpha   60.00000000
_cell_angle_beta   60.00000000
_cell_angle_gamma   60.00000000
_symmetry_Int_Tables_number   1
_chemical_formula_structural   Sr7EuO8
_chemical_formula_sum   'Sr7 Eu1 O8'
_cell_volume   282.21528107
_cell_formula_units_Z   1
loop_
 _symmetry_equiv_pos_site_id
 _symmetry_equiv_pos_as_xyz
  1  'x, y, z'
loop_
 _atom_site_type_symbol
 _atom_site_label
 _atom_site_symmetry_multiplicity
 _atom_site_fract_x
 _atom_site_fract_y
 _atom_site_fract_z
 _atom_site_occupancy
  Eu  Eu0  1  0.25000000  0.25000000  0.25000000  1
  Sr  Sr1  1  0.25000000  0.25000000  0.75000000  1.0
  Sr  Sr2  1  0.25000000  0.75000000  0.25000000  1.0
  Sr  Sr3  1  0.25000000  0.75000000  0.75000000  1.0
  Sr  Sr4  1  0.75000000  0.25000000  0.25000000  1.0
  Sr  Sr5  1  0.75000000  0.25000000  0.75000000  1.0
  Sr  Sr6  1  0.75000000  0.75000000  0.25000000  1.0
  Sr  Sr7  1  0.75000000  0.75000000  0.75000000  1.0
  O  O8  1  0.00000000  0.00000000  0.00000000  1.0
  O  O9  1  0.00000000  0.00000000  0.50000000  1.0
  O  O10  1  0.00000000  0.50000000  0.00000000  1.0
  O  O11  1  0.00000000  0.50000000  0.50000000  1.0
  O  O12  1  0.50000000  0.00000000  0.00000000  1.0
  O  O13  1  0.50000000  0.00000000  0.50000000  1.0
  O  O14  1  0.50000000  0.50000000  0.00000000  1.0
  O  O15  1  0.50000000  0.50000000  0.50000000  1.0
